<?xml version="1.0" encoding="UTF-8"?>

<!-- generated on 2023-02-07 15:46:17 by Eclipse SUMO netedit Version 1.15.0
<configuration xmlns:xsi="http://www.w3.org/2001/XMLSchema-instance" xsi:noNamespaceSchemaLocation="http://sumo.dlr.de/xsd/netconvertConfiguration.xsd">

    <input>
        <sumo-net-file value="map/T-inter.net.xml"/>
    </input>

    <output>
        <output-file value="map/T-inter.net.xml"/>
    </output>

    <processing>
        <geometry.min-radius.fix.railways value="false"/>
        <geometry.max-grade.fix value="false"/>
        <offset.disable-normalization value="true"/>
        <lefthand value="0"/>
    </processing>

    <junctions>
        <no-turnarounds value="true"/>
        <junctions.corner-detail value="5"/>
        <junctions.limit-turn-speed value="5.50"/>
        <rectangular-lane-cut value="0"/>
    </junctions>

    <pedestrian>
        <walkingareas value="0"/>
    </pedestrian>

</configuration>
-->

<net version="1.9" junctionCornerDetail="5" limitTurnSpeed="5.50" xmlns:xsi="http://www.w3.org/2001/XMLSchema-instance" xsi:noNamespaceSchemaLocation="http://sumo.dlr.de/xsd/net_file.xsd">

    <location netOffset="0.00,0.00" convBoundary="-112.80,-12.80,112.80,100.00" origBoundary="-10000000000.00,-10000000000.00,10000000000.00,10000000000.00" projParameter="!"/>

    <edge id=":J0_0" function="internal">
        <lane id=":J0_0_0" index="0" speed="100.00" length="14.40" shape="7.20,101.60 -7.20,101.60"/>
    </edge>
    <edge id=":J0_1" function="internal">
        <lane id=":J0_1_0" index="0" speed="8.00" length="14.19" shape="7.20,101.60 3.35,101.05 0.60,99.40 -1.05,96.65 -1.60,92.80"/>
    </edge>
    <edge id=":J0_2" function="internal">
        <lane id=":J0_2_0" index="0" speed="6.51" length="9.03" shape="1.60,92.80 1.95,95.25 3.00,97.00 4.75,98.05 7.20,98.40"/>
    </edge>
    <edge id=":J0_3" function="internal">
        <lane id=":J0_3_0" index="0" speed="8.00" length="14.19" shape="1.60,92.80 1.05,96.65 -0.60,99.40 -3.35,101.05 -7.20,101.60"/>
    </edge>
    <edge id=":J0_4" function="internal">
        <lane id=":J0_4_0" index="0" speed="6.51" length="9.03" shape="-7.20,98.40 -4.75,98.05 -3.00,97.00 -1.95,95.25 -1.60,92.80"/>
    </edge>
    <edge id=":J0_5" function="internal">
        <lane id=":J0_5_0" index="0" speed="100.00" length="14.40" shape="-7.20,98.40 7.20,98.40"/>
    </edge>

    <edge id="-EB" from="J0" to="J6" priority="-1">
        <lane id="-EB_0" index="0" speed="100.00" length="105.60" shape="-7.20,101.60 -112.80,101.60"/>
    </edge>
    <edge id="-NB" from="J0" to="J2" priority="-1">
        <lane id="-NB_0" index="0" speed="100.00" length="105.60" shape="-1.60,92.80 -1.60,-12.80"/>
    </edge>
    <edge id="-WB" from="J0" to="J4" priority="-1">
        <lane id="-WB_0" index="0" speed="100.00" length="105.60" shape="7.20,98.40 112.80,98.40"/>
    </edge>
    <edge id="EB" from="J6" to="J0" priority="-1">
        <lane id="EB_0" index="0" speed="100.00" length="105.60" shape="-112.80,98.40 -7.20,98.40"/>
    </edge>
    <edge id="NB" from="J2" to="J0" priority="-1">
        <lane id="NB_0" index="0" speed="100.00" length="105.60" shape="1.60,-12.80 1.60,92.80"/>
    </edge>
    <edge id="WB" from="J4" to="J0" priority="-1">
        <lane id="WB_0" index="0" speed="100.00" length="105.60" shape="112.80,101.60 7.20,101.60"/>
    </edge>

    <tlLogic id="J0" type="static" programID="0" offset="0">
        <phase duration="42" state="rrGGGr"/>
        <phase duration="3"  state="rrgGGr"/>
    </tlLogic>

    <junction id="J0" type="traffic_light" x="0.00" y="100.00" incLanes="WB_0 NB_0 EB_0" intLanes=":J0_0_0 :J0_1_0 :J0_2_0 :J0_3_0 :J0_4_0 :J0_5_0" shape="7.20,103.20 7.20,96.80 4.98,96.36 4.20,95.80 3.64,95.02 3.31,94.02 3.20,92.80 -3.20,92.80 -3.64,95.02 -4.20,95.80 -4.98,96.36 -5.98,96.69 -7.20,96.80 -7.20,103.20">
        <request index="0" response="000000" foes="001000" cont="0"/>
        <request index="1" response="110000" foes="111000" cont="0"/>
        <request index="2" response="100000" foes="100000" cont="0"/>
        <request index="3" response="100011" foes="100011" cont="0"/>
        <request index="4" response="000000" foes="000010" cont="0"/>
        <request index="5" response="000000" foes="001110" cont="0"/>
    </junction>
    <junction id="J2" type="dead_end" x="0.00" y="-12.80" incLanes="-NB_0" intLanes="" shape="0.00,-12.80 -3.20,-12.80 0.00,-12.80"/>
    <junction id="J4" type="dead_end" x="112.80" y="100.00" incLanes="-WB_0" intLanes="" shape="112.80,100.00 112.80,96.80 112.80,100.00"/>
    <junction id="J6" type="dead_end" x="-112.80" y="100.00" incLanes="-EB_0" intLanes="" shape="-112.80,100.00 -112.80,103.20 -112.80,100.00"/>

    <connection from="EB" to="-NB" fromLane="0" toLane="0" via=":J0_4_0" tl="J0" linkIndex="4" dir="r" state="O"/>
    <connection from="EB" to="-WB" fromLane="0" toLane="0" via=":J0_5_0" tl="J0" linkIndex="5" dir="s" state="O"/>
    <connection from="NB" to="-WB" fromLane="0" toLane="0" via=":J0_2_0" tl="J0" linkIndex="2" dir="r" state="o"/>
    <connection from="NB" to="-EB" fromLane="0" toLane="0" via=":J0_3_0" tl="J0" linkIndex="3" dir="l" state="o"/>
    <connection from="WB" to="-EB" fromLane="0" toLane="0" via=":J0_0_0" tl="J0" linkIndex="0" dir="s" state="O"/>
    <connection from="WB" to="-NB" fromLane="0" toLane="0" via=":J0_1_0" tl="J0" linkIndex="1" dir="l" state="o"/>

    <connection from=":J0_0" to="-EB" fromLane="0" toLane="0" dir="s" state="M"/>
    <connection from=":J0_1" to="-NB" fromLane="0" toLane="0" dir="l" state="M"/>
    <connection from=":J0_2" to="-WB" fromLane="0" toLane="0" dir="r" state="M"/>
    <connection from=":J0_3" to="-EB" fromLane="0" toLane="0" dir="l" state="M"/>
    <connection from=":J0_4" to="-NB" fromLane="0" toLane="0" dir="r" state="M"/>
    <connection from=":J0_5" to="-WB" fromLane="0" toLane="0" dir="s" state="M"/>

</net>
